/*--------------------------------*- C++ -*----------------------------------*\
| =========                 |                                                 |
| \\      /  F ield         | OpenFOAM: The Open Source CFD Toolbox           |
|  \\    /   O peration     | Version:  2306                                  |
|   \\  /    A nd           | Website:  www.openfoam.com                      |
|    \\/     M anipulation  |                                                 |
\*---------------------------------------------------------------------------*/
FoamFile
{
    version     2.0;
    format      ascii;
    arch        "LSB;label=32;scalar=64";
    class       featureEdgeMesh;
    location    "constant/triSurface";
    object      cylinder.eMesh;
}
// * * * * * * * * * * * * * * * * * * * * * * * * * * * * * * * * * * * * * //


// points:

64913
(
(0.00151915 -0.0140384 -0.0447181)
(-0.00941624 -0.00632418 -0.044701)
(0.0905446 0.0577443 -0.044846)
(0.0902809 0.0583833 -0.0446323)
(0.0902186 0.0584334 -0.0445426)
(0.0181191 -0.0664017 -0.0422297)
(0.0181155 -0.0664017 -0.0422307)
(0.0181283 -0.066402 -0.0422307)
(-0.0121976 -0.0044226 -0.0399208)
(-0.0121906 -0.00440955 -0.0399454)
(-0.0122196 -0.00446234 -0.0398467)
(-0.0339974 -0.0371862 -0.0319363)
(0.000477042 -0.0272207 -0.0260901)
(0.00140658 -0.0273755 -0.0260951)
(0.00046406 -0.0271704 -0.0260628)
(0.000488255 -0.0271263 -0.0259837)
(0.00025266 -0.0269582 -0.0258825)
(0.0245448 -0.0397909 -0.0254077)
(0.0245718 -0.039729 -0.0254287)
(0.0245735 -0.0397224 -0.0254278)
(0.024544 -0.0397908 -0.025406)
(0.024556 -0.0397585 -0.0254115)
(0.0245652 -0.0397387 -0.0254191)
(-0.000442858 -0.0269004 -0.0249378)
(0.0245503 -0.0397717 -0.0254078)
(0.0245572 -0.0397554 -0.0254128)
(-0.00409273 -0.00425869 -0.0231763)
(-0.00409421 -0.00422078 -0.0231711)
(0.00694896 -0.00416894 -0.0231536)
(0.00694344 -0.00417566 -0.0231289)
(-0.0014952 -0.00610324 -0.0228651)
(-0.00149023 -0.00613183 -0.0228424)
(-0.00149141 -0.0060646 -0.0228372)
(-0.00481895 -0.00559635 -0.0227269)
(0.00693262 -0.00418851 -0.023079)
(0.000697304 0.00503809 -0.0228444)
(0.000714 0.00514254 -0.0228023)
(-0.00459794 -0.00711457 -0.0225002)
(-0.0046338 -0.00714965 -0.0224816)
(-0.00455034 -0.00713525 -0.0224806)
(-0.00332654 -0.0069388 -0.0224211)
(-0.00302612 -0.00643552 -0.0225264)
(-0.00346859 -0.00491383 -0.0225653)
(-0.00344798 -0.00487131 -0.0225598)
(-0.00346229 -0.00484601 -0.0225018)
(0.00691192 -0.0042115 -0.0229852)
(-0.00528393 -0.00269911 -0.0224277)
(-0.00520146 -0.00269106 -0.0224455)
(-0.00520813 -0.0026246 -0.0224335)
(-0.00692997 -0.000789115 -0.0223586)
(-0.0069529 -0.000833549 -0.0223507)
(-0.00696864 -0.000779217 -0.0223198)
(-0.00689591 -0.00082735 -0.0223511)
(-0.00617722 0.00304853 -0.0224033)
(-0.00618825 0.00302077 -0.0223771)
(-0.00613147 0.00304124 -0.0223811)
(0.0013302 0.00342189 -0.0224395)
(0.00129604 0.003493 -0.0224734)
(0.00132165 0.00359388 -0.0224814)
(0.000647497 0.00523573 -0.0227258)
(0.090534 0.0581052 -0.0225071)
(-0.00306687 -0.00705436 -0.0222621)
(-0.00373956 -0.00701463 -0.0222347)
(-0.00344322 -0.00491056 -0.0225004)
(0.0015506 -0.00423078 -0.0221266)
(0.000330774 -0.00385124 -0.0220607)
(-0.00180388 -0.0040026 -0.0218373)
(0.000271186 -0.00256973 -0.0220688)
(0.000304453 -0.00257567 -0.0220476)
(-0.00109021 -0.000367973 -0.0220964)
(-0.00109455 -0.000144603 -0.0220396)
(-0.0027852 0.00261549 -0.0219314)
(-0.00272927 0.0025942 -0.0218901)
(-0.00410297 0.00391001 -0.0219324)
(-0.0041461 0.00393393 -0.0219287)
(-0.00409224 0.00395963 -0.0219308)
(-0.000494044 0.00552898 -0.022086)
(-0.000518161 0.00551694 -0.0220626)
(-0.000529865 0.00553319 -0.0220626)
(0.00375371 -0.00732437 -0.021685)
(0.00374155 -0.00736257 -0.0216684)
(0.00375996 -0.00731441 -0.0216473)
(-0.101719 -0.00616514 -0.0216256)
(-0.101716 -0.00617738 -0.0215583)
(-0.101719 -0.00618574 -0.0215726)
(-0.000636208 -0.00552508 -0.0216311)
(-0.000583714 -0.00543495 -0.0216018)
(-0.000594601 -0.00533695 -0.0214728)
(-0.00270066 -0.00490619 -0.0219288)
(-0.00268967 -0.00483042 -0.0219513)
(-0.00265308 -0.00479766 -0.0219666)
(-0.00281358 -0.00312882 -0.021772)
(-0.00283128 -0.00315303 -0.0217623)
(-0.00282798 -0.00312619 -0.0217112)
(-0.00403286 -0.00267657 -0.0216452)
(-0.00408952 -0.00266674 -0.0216215)
(0.000310908 0.00129989 -0.0218078)
(0.000359555 0.00134344 -0.0218061)
(0.00034036 0.00140676 -0.0218355)
(0.00031027 0.00141253 -0.0218509)
(-0.0028263 0.00208646 -0.0218772)
(-0.00266331 0.00246064 -0.0218272)
(0.000796918 0.00270769 -0.0216492)
(-0.00287531 0.00287095 -0.021843)
(0.000752959 0.0027652 -0.021692)
(0.00067916 0.00280342 -0.021673)
(-0.00103962 0.00385696 -0.0218522)
(-0.00103962 0.00385686 -0.0218521)
(-0.00103972 0.00385696 -0.0218521)
(-0.00103952 0.00385696 -0.0218521)
(-0.00103962 0.00385705 -0.0218521)
(-0.00252836 0.00487897 -0.0217227)
(-0.101722 -0.00622933 -0.0214332)
(0.00351027 -0.00619992 -0.0216437)
(0.00353171 -0.00622454 -0.0215635)
(0.00348667 -0.00614743 -0.0215967)
(-0.00180908 -0.00427938 -0.0217033)
(-0.000544093 -0.00438718 -0.0215824)
(-0.000624854 -0.00431212 -0.0215651)
(-0.000461439 -0.00435115 -0.0216144)
(-0.000470394 -0.00436898 -0.0216103)
(-0.000461415 -0.00436294 -0.0216085)
(0.00204331 -0.0040425 -0.021265)
(-0.00180496 -0.00398351 -0.021752)
(0.00204151 -0.00399931 -0.0212369)
(-0.00267866 -0.002639 -0.0215594)
(-0.00266365 -0.00256167 -0.0215522)
(-0.00265131 -0.00259156 -0.0215345)
(-0.000578458 0.000540363 -0.0212375)
(0.000327082 0.00143662 -0.0218091)
(-0.00103962 0.00385696 -0.0218519)
(-0.00112008 0.00561918 -0.0213509)
(-0.00106282 0.00571112 -0.0213621)
(0.00416052 -0.00829485 -0.0215645)
(-0.101678 -0.00623386 -0.0211016)
(-0.000497517 -0.00495645 -0.0209908)
(-0.0036341 -0.0039696 -0.020939)
(-0.00367703 -0.00395586 -0.0209446)
(-0.00371201 -0.00389708 -0.0209254)
(0.00206052 -0.00403359 -0.0211014)
(0.0901632 0.058411 -0.0210527)
(-0.00129123 -0.00587719 -0.0208048)
(-0.00134715 -0.00585635 -0.0207226)
(-0.00134213 -0.00585326 -0.0207326)
(-0.00065679 -0.00550236 -0.0211248)
(-0.00136004 -0.00584359 -0.0207044)
(-0.000499542 -0.00497607 -0.0209293)
(-0.000481499 -0.00494721 -0.0209632)
(-0.000492315 -0.00493991 -0.0209385)
(-0.00362931 -0.00396356 -0.0208936)
(-0.0036085 -0.00341373 -0.0205105)
(0.0901665 0.0584045 -0.020684)
(-0.0013074 -0.00588107 -0.0207754)
(0.00201822 -0.0056445 -0.0205262)
(0.00557576 -0.00555774 -0.0201095)
(0.00559146 -0.00555715 -0.020072)
(0.00560107 -0.00555625 -0.0200691)
(0.00200526 -0.00555907 -0.0205472)
(0.00560727 -0.0055618 -0.0200642)
(-0.000481888 -0.00495367 -0.0209283)
(0.00208039 -0.00411142 -0.0209845)
(0.0901688 0.0584004 -0.0203155)
(-0.00250897 -0.00923604 -0.0203407)
(-0.000835842 -0.00752642 -0.0202322)
(-0.000863728 -0.00747557 -0.0202429)
(0.00204499 -0.0056001 -0.0205272)
(0.00564453 -0.00555296 -0.0199767)
(0.00567473 -0.00558069 -0.019951)
(0.00569966 -0.00556535 -0.0199269)
(-0.00368728 -0.00356974 -0.0204241)
(0.0901697 0.0583982 -0.019946)
(0.0901695 0.0583999 -0.0201923)
(0.0063077 -0.0130747 -0.0198623)
(-0.000653597 -0.00858748 -0.0197043)
(-0.000587141 -0.00856918 -0.0197205)
(-0.000862334 -0.00755838 -0.0201887)
(-0.000867544 -0.00751358 -0.0201922)
(0.000434663 -0.00725875 -0.0196504)
(0.00596269 -0.00575572 -0.0195179)
(-0.00562905 -0.00303222 -0.0196844)
(-0.00563351 -0.00305992 -0.0196628)
(-0.00561926 -0.00304094 -0.0196615)
(-0.00565158 -0.00301767 -0.019654)
(0.0901694 0.0583976 -0.0195747)
(0.00633513 -0.0130812 -0.0198654)
(0.00641507 -0.00646442 -0.0192813)
(0.00640568 -0.00647079 -0.0192548)
(0.0064315 -0.00646142 -0.0192232)
(0.00577053 -0.00554962 -0.0197057)
(0.00590433 -0.00554153 -0.0195141)
(-0.00565604 -0.00304537 -0.0196325)
(-0.00213562 0.00204466 -0.0193349)
(-0.00227778 0.00551807 -0.0199477)
(0.000781367 -0.00751136 -0.0191498)
(0.000243665 -0.00636477 -0.019344)
(0.000253509 -0.00625072 -0.0192269)
(0.000259263 -0.00615715 -0.0191423)
(0.000242022 -0.00606696 -0.019141)
(0.000261117 -0.00600698 -0.0192056)
(0.00632935 -0.00542857 -0.0188462)
(-0.00602371 -0.00353639 -0.0189335)
(0.00077689 -0.0086382 -0.018734)
(0.000740733 -0.00859418 -0.0187597)
(0.00076063 -0.00849479 -0.0188617)
(0.000749712 -0.00746357 -0.0191537)
(0.00731956 -0.00688447 -0.0186651)
(0.00730705 -0.0068371 -0.018674)
(0.00646394 -0.00632753 -0.0189139)
(0.0065169 -0.0063305 -0.0189266)
(0.000245667 -0.00610886 -0.0191132)
(0.00633424 -0.00550853 -0.0186931)
(0.00637991 -0.00543691 -0.0187439)
(0.00634402 -0.00544056 -0.0187262)
(0.000755148 -0.00865735 -0.0187107)
(0.00722889 -0.00685745 -0.018688)
(0.00726377 -0.00685721 -0.0186583)
(0.00637834 -0.00547291 -0.0186811)
(0.00214318 0.00258346 -0.0179029)
(0.00216373 0.00257546 -0.0179046)
(0.0021662 0.00256051 -0.0179034)
(0.00217764 0.00255931 -0.0178943)
(0.090164 0.0584403 -0.0182534)
(0.000765933 -0.0107539 -0.0183739)
(-0.00197356 0.00315582 -0.0178798)
(-0.00198632 0.00311786 -0.0178169)
(-0.00200578 0.00317361 -0.0178036)
(0.0901647 0.0584731 -0.017766)
(0.00110889 -0.000166852 -0.0175787)
(-0.00403402 0.000371816 -0.0178827)
(0.0025017 0.000799079 -0.0180738)
(0.0901664 0.0584979 -0.0173848)
(0.090166 0.0584981 -0.0173812)
(-0.101714 -0.00606526 -0.017147)
(-0.101719 -0.00588891 -0.0170222)
(0.00106932 -9.2826e-05 -0.0175718)
(0.0011189 -9.53491e-05 -0.0175914)
(0.00196458 0.00363026 -0.0170613)
(0.000395377 0.00396477 -0.0175106)
(0.00208195 0.00385979 -0.0171153)
(-0.00107138 0.00424079 -0.0175254)
(-0.00105902 0.00435924 -0.0175066)
(0.0901676 0.0585195 -0.0169635)
(-0.101737 -0.00600716 -0.0169933)
(-0.101718 -0.00592097 -0.0169154)
(-0.00361136 0.00302802 -0.0173347)
(0.00194702 0.0037634 -0.0170467)
(0.00205683 0.00382669 -0.0170738)
(-0.101729 -0.00597919 -0.0168833)
(-0.101729 -0.00595015 -0.0168583)
(0.0891471 0.0460122 -0.0163226)
(0.0891473 0.0460123 -0.0163226)
(-0.015584 0.00513404 -0.0158075)
(-0.0155635 0.00513442 -0.0158048)
(0.0901697 0.0585393 -0.0159757)
(0.0901695 0.0585384 -0.0158376)
(0.0901695 0.0585378 -0.0157896)
(-0.0963096 0.0446065 -0.0143386)
(-0.0963106 0.0445706 -0.0142682)
(-0.0963075 0.0446217 -0.0143165)
(-0.0963279 0.0445196 -0.0141429)
(-0.0570758 0.0452358 -0.0115693)
(-0.056494 0.0451597 -0.0116864)
(0.0509754 0.0371381 -0.0108441)
(0.0901691 0.0585311 -0.0104247)
(0.0901691 0.058531 -0.0104246)
(0.090169 0.0585311 -0.0104246)
(0.0901692 0.0585311 -0.0104246)
(0.0901691 0.0585312 -0.0104246)
(-0.00437575 -0.0940327 -0.0100837)
(0.0901691 0.0585311 -0.0104244)
(-0.0604856 0.0416295 -0.00933094)
(-0.0604767 0.0416304 -0.00932339)
(-0.0604883 0.0416253 -0.00931233)
(-0.060483 0.041634 -0.00930101)
(-0.0605765 0.0416826 -0.00921507)
(-0.0609975 0.0423507 -0.00895709)
(0.053665 0.0331596 -0.00824669)
(0.0544765 0.0335819 -0.00822524)
(0.0546262 0.0337255 -0.00830167)
(0.0546156 0.0340308 -0.00822291)
(0.0545036 0.0340398 -0.00810662)
(0.0543653 0.0342248 -0.00810089)
(0.0543276 0.0342582 -0.00809002)
(0.0544199 0.0341529 -0.00805373)
(0.0533759 0.0347384 -0.00788247)
(0.0534553 0.0349181 -0.00801374)
(0.0536605 0.0347999 -0.0077765)
(-0.0963106 0.0446159 -0.0079089)
(0.0522615 0.0312527 -0.00731852)
(-0.061087 0.0419061 -0.00653782)
(-0.0608757 0.0419568 -0.00662168)
(-0.0608383 0.0418446 -0.00642993)
(0.0150564 0.00561523 -0.00599888)
(0.0150565 0.00561559 -0.00600072)
(0.0150559 0.0055968 -0.00562987)
(-0.0601455 0.0303316 -0.0059065)
(-0.0498229 0.0382369 -0.00562713)
(-0.0498696 0.0382796 -0.00560181)
(-0.0496463 0.0383073 -0.00571632)
(0.0150556 0.00558388 -0.00538179)
(-0.0587008 0.0275705 -0.0055791)
(-0.0497951 0.0382494 -0.00560458)
(-0.0499045 0.0383372 -0.00551712)
(-0.0498179 0.0383079 -0.00553237)
(-0.0498461 0.038382 -0.00546679)
(-0.0498996 0.0383951 -0.00547248)
(-0.0498753 0.0383304 -0.00546956)
(0.0559005 0.0418897 -0.00451976)
(0.0560225 0.0422276 -0.00453456)
(0.0536681 0.0427859 -0.00453961)
(0.0564358 0.0437088 -0.00455244)
(0.0565264 0.0436979 -0.00448996)
(0.0564384 0.0439268 -0.00452906)
(0.056572 0.0447395 -0.00460614)
(0.0569771 0.0446928 -0.00452641)
(0.057343 0.0447455 -0.00461394)
(0.0563595 0.0449274 -0.00462824)
(0.0564731 0.0449302 -0.00453014)
(0.0569416 0.044836 -0.00455858)
(0.0573281 0.0423018 -0.00412258)
(0.0572843 0.042702 -0.00417533)
(0.0573275 0.0429381 -0.00423358)
(0.0559069 0.043111 -0.00446084)
(0.056169 0.0434089 -0.00447617)
(0.0549743 0.0447016 -0.00438333)
(-0.0557011 0.0371176 -0.00336046)
(-0.0553959 0.0372871 -0.00343396)
(0.0570274 0.0322262 -0.00187714)
(-0.0594712 0.0470225 -0.00178549)
(-0.0513795 0.0344716 -0.0013369)
(-0.0514647 0.0344935 -0.00133269)
(-0.0595461 0.0360483 -0.00120903)
(-0.0595461 0.0360482 -0.00120887)
(-0.0595462 0.0360483 -0.00120887)
(-0.059546 0.0360483 -0.00120887)
(-0.0595461 0.0360484 -0.00120887)
(-0.0553345 0.0431595 -0.00121862)
(-0.054806 0.0434078 -0.00133877)
(-0.0546939 0.0435584 -0.0013397)
(0.0468031 0.0440908 -0.00102844)
(0.0468672 0.0440598 -0.000966793)
(0.0467679 0.0441612 -0.00104592)
(0.0466766 0.0441936 -0.00101707)
(0.0533455 0.0301216 -0.00102015)
(-0.0514458 0.034371 -0.00132103)
(-0.0514381 0.0344307 -0.0012924)
(-0.0606976 0.0349715 -0.000889027)
(-0.0595461 0.0360483 -0.00120873)
(-0.0569476 0.0414755 -0.00110302)
(0.0473207 0.0416033 -0.00140669)
(0.0473801 0.0416031 -0.00142981)
(-0.0547684 0.043454 -0.00131693)
(-0.0545382 0.0437507 -0.0010859)
(0.0469371 0.0440904 -0.00089096)
(0.0469459 0.0441562 -0.000874642)
(0.0469654 0.0441301 -0.000784638)
(0.0455266 0.045306 -0.000922653)
(-0.0577453 0.0279052 -0.000579727)
(-0.0579856 0.0280875 -0.000423097)
(-0.0628222 0.0353104 -0.000506461)
(-0.0581734 0.0413749 -0.000450111)
(0.0454753 0.0452862 -0.000875575)
(-0.0585123 0.0277428 -0.000368488)
(0.052069 0.032269 -0.000203398)
(-0.0628218 0.0347442 -0.000275908)
(0.0464826 0.043776 -0.000282175)
(0.0462908 0.0443463 -0.000215732)
(0.0463129 0.0444104 -0.000279018)
(-0.0508815 0.0316488 4.12482e-05)
(-0.0506917 0.0318983 0.000103537)
(0.0518618 0.0322364 -0.000108506)
(-0.0520953 0.0322506 0.000124407)
(-0.0565523 0.0394831 0.000241507)
(0.0473858 0.040403 0.000449423)
(0.0473813 0.0404814 0.000466639)
(0.0464874 0.0440416 -0.000102466)
(0.0464496 0.0441726 -0.000102303)
(0.0463592 0.0443754 -0.000196027)
(-0.059536 0.0467671 4.35543e-05)
(-0.052033 0.0322046 0.000213089)
(-0.0635774 0.0346456 0.00053206)
(-0.0569219 0.03902 0.000651061)
(-0.056895 0.0390392 0.000652218)
(-0.0567812 0.0393838 0.000563756)
(-0.049799 0.0396476 0.000462799)
(-0.0498064 0.0397291 0.000474535)
(0.0474048 0.0404399 0.000525579)
(0.0473222 0.0405452 0.000563351)
(0.0473959 0.0404941 0.000543731)
(-0.0604052 0.0272318 0.00103649)
(0.0504762 0.0319708 0.000863432)
(-0.0568733 0.0391213 0.000645839)
(0.0477217 0.0451918 0.000941381)
(-0.0612078 0.0298967 0.00144723)
(-0.0490247 0.0361793 0.00134907)
(-0.0612361 0.0298918 0.00150792)
(-0.0613649 0.0298709 0.00153727)
(-0.0638575 0.0336955 0.0017962)
(-0.0494241 0.0373464 0.00165271)
(-0.0593658 0.0399363 0.00172474)
(-0.0596836 0.0438317 0.00168479)
(0.0487787 0.0450636 0.00158682)
(0.0483686 0.0515323 0.00217983)
(-0.0479077 0.0354646 0.00258469)
(0.0488692 0.0428545 0.00247767)
(0.0488695 0.0428547 0.0024774)
(0.0488692 0.0428546 0.0024775)
(0.0488688 0.0428542 0.00247758)
(0.0488688 0.0428535 0.00247751)
(0.0488686 0.0428539 0.00247738)
(-0.0963074 0.0445931 0.00219494)
(0.0495686 0.0451953 0.00258193)
(0.0485143 0.0515291 0.00244159)
(-0.0442579 0.0344638 0.00282403)
(-0.0593603 0.0386048 0.00288017)
(-0.0593771 0.0386498 0.00291665)
(0.0492126 0.0414898 0.00282932)
(0.0491926 0.0415369 0.00279189)
(0.0491445 0.0415722 0.00280632)
(0.0488689 0.042854 0.00247715)
(0.0488689 0.0428538 0.00247719)
(0.0496745 0.0438408 0.00284586)
(0.0496745 0.043841 0.00284601)
(0.0496748 0.0438407 0.00284605)
(0.0496741 0.0438408 0.00284584)
(0.0496742 0.043841 0.00284605)
(0.0496741 0.0438409 0.00284601)
(0.0496749 0.0438404 0.00284584)
(0.0496749 0.0438403 0.00284601)
(0.0496741 0.0438406 0.00284605)
(0.0496748 0.0438402 0.00284605)
(0.0496744 0.0438403 0.00284601)
(-0.0626786 0.0507166 0.00291182)
(-0.0593925 0.0385478 0.00294288)
(0.0491951 0.0415318 0.00284618)
(0.0496743 0.043841 0.00284623)
(0.0496747 0.0438402 0.00284623)
(0.0496743 0.0438406 0.00284621)
(-0.0620954 0.0341398 0.00348337)
(-0.0495283 0.0342251 0.0036304)
(-0.0616861 0.0345309 0.00364586)
(-0.049482 0.0342597 0.00361824)
(-0.0494193 0.0344151 0.00348979)
(-0.0600224 0.0360181 0.00362321)
(-0.0611498 0.0377587 0.00365525)
(0.0509717 0.0385096 0.00339479)
(-0.0523237 0.0397528 0.00366707)
(0.0482159 0.0447021 0.00355342)
(0.0482202 0.044738 0.00357522)
(-0.0604936 0.034465 0.00383434)
(-0.060353 0.0344499 0.00372489)
(-0.060139 0.0365129 0.00374407)
(0.0528456 0.0297546 0.00423053)
(-0.0620049 0.0391895 0.00431883)
(-0.0589507 0.0421894 0.00419955)
(0.0904283 0.0580265 0.00430443)
(-0.0496776 0.0334952 0.0047398)
(-0.0496658 0.0336711 0.00464458)
(-0.0496531 0.0336913 0.0046231)
(-0.0596078 0.0354324 0.00440818)
(-0.0594377 0.0354872 0.00452615)
(-0.0593656 0.0355345 0.0045789)
(-0.0593882 0.0355344 0.00458503)
(0.0904187 0.0580374 0.00461651)
(-0.0401773 0.0242174 0.00484254)
(-0.0401183 0.0244781 0.00489546)
(-0.0392028 0.0259066 0.00521555)
(-0.064264 0.0332133 0.00491458)
(-0.0593695 0.0355179 0.00458999)
(0.0493459 0.0412121 0.00522744)
(0.0613415 0.0430771 0.00519762)
(-0.0591067 0.0460091 0.00472369)
(-0.05893 0.046259 0.00477669)
(-0.0613978 0.0510155 0.00518588)
(-0.0484833 0.0316269 0.00545822)
(-0.0484815 0.0316272 0.00545684)
(0.0411478 0.0316341 0.00553013)
(0.041471 0.0317045 0.00543044)
(-0.0628954 0.0324157 0.00545085)
(-0.0486587 0.0319259 0.0054693)
(-0.057234 0.0430535 0.0052482)
(0.0622786 0.0465652 0.00547518)
(0.0619195 0.0471327 0.00543239)
(-0.0615503 0.0334593 0.00579235)
(-0.0963318 0.0443806 0.00557977)
(-0.0963241 0.0444043 0.00565101)
(0.0904068 0.0580325 0.00559918)
(-0.0486838 0.0318117 0.00551897)
(0.0413441 0.0317413 0.00581374)
(0.0420353 0.0316585 0.00587489)
(0.0557417 0.0330657 0.00607982)
(0.055727 0.0330333 0.00606971)
(0.0557421 0.0330604 0.00609738)
(0.0556246 0.0331428 0.00606182)
(0.0557016 0.0330858 0.00609589)
(0.0554723 0.0332529 0.00608173)
(0.0555406 0.0331996 0.00609869)
(0.0604969 0.0356115 0.00585097)
(0.0602673 0.035739 0.00582097)
(0.0604936 0.0358354 0.00584376)
(-0.0963208 0.0443966 0.00562846)
(-0.0963178 0.0444129 0.00565165)
(-0.0653861 0.0504828 0.00599691)
(0.0904072 0.0580319 0.00561149)
(-0.0634636 0.0329827 0.00671994)
(-0.062636 0.033543 0.00676035)
(-0.0460047 0.0336696 0.00627196)
(-0.0467158 0.0357028 0.00657851)
(0.0459295 0.036945 0.00651012)
(0.0458984 0.0369576 0.00650431)
(0.05642 0.0422583 0.00647138)
(-0.0504237 0.030516 0.00690699)
(0.0510695 0.031705 0.00707821)
(0.0510764 0.031705 0.00708368)
(0.0510828 0.031705 0.00708793)
(-0.0634291 0.0328242 0.00671394)
(-0.0415972 0.0286511 0.00717603)
(-0.0413633 0.0286646 0.00725168)
(-0.0415558 0.0287922 0.00727976)
(0.0575392 0.0303826 0.00721669)
(0.0510899 0.031705 0.00709231)
(-0.0539099 0.0322973 0.00712139)
(-0.0539223 0.0323086 0.00717994)
(-0.0468664 0.0384483 0.00732494)
(-0.046919 0.0386978 0.00723814)
(-0.0648966 0.0406091 0.00723067)
(-0.0966682 0.0438073 0.00721628)
(-0.0374323 0.0204153 0.00734929)
(0.0303275 0.0206503 0.00749896)
(0.030401 0.0206581 0.00752643)
(0.0304163 0.0207375 0.00752383)
(-0.0375726 0.0206077 0.00743738)
(0.0409903 0.0305357 0.00776521)
(0.0510829 0.031705 0.00708684)
(-0.0524921 0.0319819 0.00747154)
(0.0505643 0.0353147 0.0072919)
(-0.0398796 0.0182305 0.00783877)
(-0.0375723 0.020608 0.00743781)
(0.0303713 0.0206902 0.00754265)
(-0.0408197 0.0265115 0.00800656)
(-0.0408234 0.026523 0.00800688)
(0.0565466 0.03332 0.00786625)
(0.0565147 0.0333785 0.00799319)
(0.0471398 0.0368662 0.00801214)
(-0.0509098 0.0396036 0.00802578)
(-0.0509781 0.0396001 0.00807003)
(-0.0565948 0.0415501 0.00802631)
(-0.0566371 0.0415721 0.00812922)
(-0.0574655 0.0455283 0.00790592)
(0.0562616 0.0333934 0.00826894)
(0.0562899 0.0334107 0.00829667)
(0.0562463 0.0334201 0.00831547)
(-0.0396265 0.0184864 0.00864413)
(0.0380274 0.0258297 0.00860418)
(-0.0513736 0.0362215 0.00870085)
(-0.0514136 0.0362515 0.00867781)
(-0.0513371 0.0362385 0.00876171)
(-0.051585 0.0363686 0.00871191)
(-0.0512604 0.0362794 0.00877198)
(-0.052047 0.0364924 0.00889377)
(-0.096843 0.0435812 0.00864094)
(-0.096798 0.0436368 0.00854257)
(-0.0968246 0.0436335 0.00858466)
(-0.061757 0.0465631 0.0088396)
(0.0377775 0.0258317 0.00887438)
(0.0382138 0.0268352 0.00904806)
(0.0382179 0.0268943 0.00904522)
(0.0382422 0.0268733 0.00908176)
(0.0382326 0.0269041 0.00912944)
(-0.0458489 0.0351316 0.00906406)
(-0.0522142 0.036404 0.00902692)
(0.0604798 0.0374355 0.00906668)
(-0.0509239 0.038401 0.00912519)
(-0.0508473 0.0383461 0.00899443)
(-0.0968124 0.0436064 0.00862825)
(0.0531397 0.043712 0.00896724)
(-0.0578405 0.0275868 0.00959787)
(-0.0978178 0.0329987 0.00935025)
(-0.0452525 0.0350057 0.00907957)
(-0.0506389 0.0367429 0.00949501)
(-0.0505306 0.0368608 0.00936072)
(-0.0502959 0.0367283 0.00946675)
(-0.050428 0.0366775 0.0096203)
(-0.0482646 0.0382812 0.00934888)
(0.0560476 0.0419165 0.00916511)
(0.0534583 0.0438817 0.00927985)
(0.0572547 0.0455323 0.00939178)
(0.0572598 0.0459559 0.00942378)
(0.0491839 0.0351641 0.00998981)
(0.049183 0.035165 0.00998983)
(0.0580466 0.0353664 0.00976083)
(0.0581778 0.045203 0.00990424)
(0.0585004 0.0454624 0.00975231)
(0.057137 0.045934 0.00957404)
(-0.0574532 0.0428924 0.0103107)
(-0.0439941 0.019899 0.0108059)
(-0.0440276 0.0198684 0.0108108)
(-0.0440361 0.0199101 0.0108408)
(0.0501414 0.028037 0.010553)
(-0.0370524 0.0281932 0.0104909)
(-0.0370452 0.0282235 0.0105308)
(0.0359217 0.0331319 0.0105782)
(0.0491909 0.0351648 0.0100058)
(0.0491905 0.0351651 0.010006)
(-0.0468133 0.0355699 0.010529)
(-0.0515736 0.0389116 0.0106083)
(-0.0574365 0.0428988 0.0104027)
(-0.0441431 0.0197444 0.0108758)
(-0.0497043 0.0273688 0.011056)
(-0.0365696 0.0284158 0.0110929)
(-0.0600337 0.0302156 0.0110832)
(0.0376743 0.0324628 0.0108898)
(0.0548906 0.0352472 0.0107524)
(-0.045435 0.0354365 0.0110814)
(0.0551925 0.0467644 0.0110632)
(0.0547359 0.0474122 0.0108496)
(-0.0446923 0.0194135 0.0112355)
(-0.0438015 0.0196864 0.0112181)
(-0.0437676 0.0197063 0.0112551)
(-0.0437914 0.0197274 0.0112974)
(-0.0596319 0.0302974 0.0113196)
(0.0369462 0.022715 0.0114248)
(0.0371966 0.0228081 0.011487)
(-0.0546909 0.0258743 0.0116559)
(0.0459715 0.0297149 0.0115144)
(0.0441337 0.0388645 0.0118016)
(0.0441355 0.0388716 0.0118066)
(0.044119 0.0388905 0.0118016)
(0.0441268 0.0389063 0.0118161)
(0.0909522 0.0573782 0.0115841)
(-0.0454761 0.0212396 0.0120642)
(0.0383572 0.0245688 0.0121563)
(-0.0472331 0.0355921 0.0119168)
(0.0441365 0.0388937 0.0118181)
(0.0441334 0.0389149 0.0118258)
(0.0552044 0.0477059 0.0120762)
(0.0909206 0.0574903 0.0119135)
(-0.0484651 0.0178048 0.0122681)
(-0.0485068 0.017801 0.0123534)
(-0.0621365 0.0369891 0.0125065)
(0.044136 0.0389101 0.0118253)
(0.0494221 0.0403847 0.0124302)
(0.0494239 0.0403813 0.0124304)
(0.0494179 0.0403948 0.0124304)
(0.0494209 0.0403884 0.0124304)
(0.0494159 0.0403984 0.0124302)
(0.0494171 0.0403947 0.0124304)
(0.0494141 0.0404017 0.0124304)
(0.0632047 0.0420548 0.0123947)
(-0.0563521 0.0430324 0.0123296)
(0.0581116 0.0446778 0.012304)
(0.058499 0.05133 0.012108)
(0.093509 0.0536711 0.0119601)
(-0.0684943 0.0323729 0.0127197)
(0.0515747 0.0326549 0.0124098)
(0.0626812 0.0327728 0.0129035)
(0.0494224 0.0403847 0.0124306)
(-0.0583159 0.0406705 0.0127158)
(0.0494156 0.0403984 0.0124306)
(-0.0580269 0.040915 0.0127533)
(-0.0579817 0.0412525 0.0127596)
(-0.0581613 0.0412324 0.0129845)
(0.0577463 0.0441597 0.0126642)
(0.0921033 0.0553688 0.0125625)
(0.0909303 0.0576544 0.0127021)
(-0.0450407 0.018983 0.0131788)
(-0.0661567 0.0292745 0.0132256)
(0.0621076 0.0295782 0.0127948)
(0.0616375 0.0299402 0.012808)
(0.092134 0.0559414 0.0129691)
(0.0921849 0.0559033 0.0129283)
(0.0915288 0.0565022 0.0128664)
(0.0912846 0.0567143 0.0128339)
(0.0913297 0.0566699 0.0128831)
(0.0913353 0.0567274 0.0128476)
(-0.00279772 -0.0414549 0.013462)
(-0.068503 0.0287929 0.0131115)
(0.0512201 0.034069 0.0135626)
(-0.0558928 0.036045 0.0129094)
(0.0585673 0.0420244 0.0131471)
(-0.0590638 0.04384 0.0134675)
(-0.0587759 0.0439852 0.0134057)
(-0.0587574 0.0443235 0.0135361)
(-0.0568899 0.0442946 0.0135684)
(0.0921754 0.0559536 0.0129821)
(0.0913685 0.0566955 0.0129067)
(0.0909323 0.0577059 0.0129688)
(0.00876237 -0.0443478 0.0138153)
(0.00858304 -0.0438907 0.0135471)
(0.0408898 0.0206638 0.0140083)
(0.040848 0.0207311 0.0139818)
(0.0410538 0.0207662 0.0139587)
(-0.0539665 0.0248539 0.0135932)
(-0.0590225 0.043762 0.0135784)
(-0.0587513 0.0440708 0.0136097)
(0.0113585 -0.0508277 0.0142126)
(-0.0084 -0.036276 0.0142644)
(-0.0662348 0.0242055 0.0143957)
(0.06172 0.031861 0.0142211)
(-0.0490926 0.0329158 0.0142371)
(0.0508112 0.0326587 0.0143208)
(-0.0649068 0.0330521 0.0140289)
(-0.0490889 0.0329166 0.0142358)
(-0.0490922 0.0329153 0.0142394)
(-0.0583442 0.037823 0.0143814)
(-0.0583458 0.0378132 0.014383)
(-0.0583429 0.0378393 0.0143812)
(-0.0583433 0.0378341 0.0143807)
(-0.0583434 0.0378504 0.0143825)
(-0.0583445 0.0378602 0.0143849)
(0.0511058 0.0387959 0.0142386)
(0.0511254 0.0388324 0.0142407)
(0.0510974 0.0389517 0.0142347)
(0.0511548 0.0389258 0.0142709)
(-0.0564292 0.0419087 0.0139158)
(-0.0572464 0.0441827 0.0140348)
(-0.00814115 -0.0363387 0.0144077)
(-0.00868135 -0.0361429 0.0143655)
(-0.00837827 -0.036169 0.0143627)
(-0.0530925 0.0271072 0.0144639)
(-0.0530252 0.0270364 0.0145029)
(0.0501848 0.0324011 0.0146286)
(-0.0490175 0.0329396 0.0142877)
(-0.058364 0.0378341 0.0144112)
(0.0510981 0.0388407 0.0142449)
(0.0510934 0.0389689 0.0142861)
(-0.0110474 -0.0363191 0.0149455)
(-0.0110189 -0.0362877 0.0149642)
(-0.0530146 0.0231704 0.0147472)
(-0.0531369 0.0270475 0.0145027)
(0.0510762 0.0314624 0.0148355)
(-0.0489651 0.0329565 0.0143227)
(-0.0583641 0.0378392 0.0144111)
(0.045704 0.0377807 0.0150828)
(0.0457525 0.0380983 0.0150522)
(-0.011088 -0.0363093 0.0149544)
(-0.0110408 -0.0362557 0.0149868)
(-0.0110448 -0.0361785 0.0149855)
(0.0419551 0.0200461 0.0152909)
(0.058703 0.0234423 0.0151071)
(-0.0610224 0.0281333 0.0152855)
(-0.0688405 0.0334899 0.0154044)
(-0.0688521 0.0333854 0.0152913)
(-0.0544614 0.0378915 0.0151125)
(0.0066111 -0.0436568 0.0157064)
(0.0064845 -0.0429065 0.0154933)
(-0.05568 0.0272687 0.0156579)
(-0.0556685 0.0272859 0.0156685)
(-0.0557479 0.0272919 0.0155971)
(-0.0682248 0.0332465 0.0154412)
(-0.0687121 0.0335507 0.0155115)
(0.0550092 0.0433622 0.0157635)
(0.0449931 0.0185387 0.0161432)
(0.0450056 0.0185448 0.0161858)
(0.0449263 0.0188803 0.0159768)
(-0.0518527 0.0229701 0.0163002)
(-0.0556989 0.0272727 0.0156658)
(-0.0555721 0.0266707 0.0162275)
(-0.055694 0.0273001 0.0156651)
(-0.0510022 0.0282543 0.0161067)
(-0.0508637 0.0285948 0.0159365)
(-0.05515 0.0306863 0.0160545)
(-0.0610232 0.0330422 0.0158143)
(-0.0521849 0.0347947 0.0160393)
(-0.0543752 0.035719 0.0158912)
(-0.0544731 0.0357074 0.0160209)
(0.0640801 0.0364355 0.01595)
(-0.0513341 0.0378249 0.016202)
(0.0562761 0.0429514 0.0159177)
(0.0605967 0.0447277 0.0160578)
(0.0606132 0.0447247 0.0161364)
(0.0605933 0.0447462 0.0161022)
(-0.060706 0.014463 0.0163462)
(0.0447676 0.0184844 0.016346)
(0.0447315 0.0184609 0.0164047)
(0.0447638 0.0184863 0.0164371)
(0.0580322 0.0304466 0.0162223)
(-0.0554458 0.0307281 0.0161143)
(-0.0536452 0.0310473 0.0165373)
(0.0510283 0.0312206 0.0161931)
(-0.0539327 0.0312838 0.0166197)
(-0.0539767 0.0325255 0.0160831)
(0.06407 0.0342375 0.0164661)
(0.0638786 0.0345402 0.0164241)
(0.0413531 0.0348083 0.0163739)
(-0.0531827 0.0394681 0.0165232)
(-0.0464352 0.0173416 0.0170402)
(0.0526485 0.0275971 0.0165679)
(-0.0521433 0.0279638 0.0170442)
(-0.0521977 0.0279904 0.0170258)
(-0.0517567 0.0279732 0.0170104)
(-0.0521622 0.0280759 0.0169891)
(-0.0519868 0.0280676 0.0169703)
(-0.0517668 0.0280052 0.0170131)
(-0.0520945 0.0281133 0.016963)
(-0.0521141 0.0281259 0.0169811)
(-0.052039 0.0281297 0.0169641)
(-0.0519513 0.0280923 0.0169999)
(-0.0520857 0.0281473 0.0169608)
(-0.0538687 0.0311583 0.0169285)
(-0.0538116 0.0312587 0.0169209)
(-0.047247 0.0367235 0.0165655)
(-0.0470787 0.0368471 0.0165421)
(0.059942 0.04252 0.0167274)
(-0.0643845 0.0435364 0.0168187)
(-0.0455117 0.0180139 0.017021)
(-0.0531988 0.025734 0.0171091)
(-0.052139 0.0279724 0.0170685)
(-0.0521936 0.0279853 0.01705)
(-0.0517731 0.0279773 0.0170382)
(-0.0521997 0.0280261 0.0170253)
(-0.0517906 0.0280132 0.0170401)
(-0.0539021 0.0311615 0.017373)
(-0.0470915 0.0368133 0.0165856)
(0.0525611 0.0378049 0.0170139)
(-0.0611581 0.0130401 0.0174568)
(0.0637865 0.0280924 0.0175591)
(0.0562025 0.0500095 0.0175593)
(0.0577412 0.0520706 0.0174605)
(0.00783876 -0.0563949 0.0180882)
(-0.0593175 0.018732 0.0179596)
(0.0419459 0.0199893 0.018048)
(0.0419826 0.019962 0.0180488)
(0.0600655 0.0236975 0.0176285)
(0.06046 0.0238025 0.0177003)
(-0.054016 0.0299527 0.0179857)
(-0.0540135 0.0299584 0.0179821)
(-0.0540076 0.0299675 0.017986)
(-0.0539534 0.0301283 0.017942)
(-0.0539284 0.0301437 0.0179705)
(-0.0387996 0.0302049 0.0180498)
(-0.0538357 0.03049 0.0177688)
(-0.0558155 0.0312323 0.0178381)
(-0.054121 0.0315176 0.0178709)
(-0.0543016 0.0318193 0.017932)
(0.0499167 0.0354094 0.0179116)
(0.0452034 0.0366433 0.0180261)
(-0.0549273 0.0372874 0.0178752)
(-0.0479096 0.0371037 0.0179626)
(-0.0478742 0.0371158 0.0179128)
(-0.0478125 0.0370852 0.0179476)
(-0.0478541 0.0371089 0.0179669)
(-0.0558279 0.0419973 0.0178363)
(0.00666889 -0.0430254 0.0184359)
(-0.0593251 0.0187347 0.0179596)
(0.0419492 0.0199147 0.0181936)
(0.0585599 0.0217998 0.0182481)
(-0.0538303 0.0303938 0.0179818)
(-0.0558473 0.0312827 0.0178928)
(-0.0557879 0.0312722 0.017869)
(-0.0558753 0.0313692 0.0179072)
(-0.0540933 0.0315823 0.018026)
(0.0602468 0.034678 0.0182322)
(0.0534475 0.0439853 0.0183109)
(0.00708479 -0.0428755 0.0187311)
(0.042788 0.0146959 0.0187058)
(-0.0552244 0.0195351 0.018477)
(-0.0533634 0.0310486 0.018636)
(-0.0635391 0.0314442 0.0186805)
(-0.0434958 0.0335992 0.0186973)