/*--------------------------------*- C++ -*----------------------------------*\
| =========                 |                                                 |
| \\      /  F ield         | OpenFOAM: The Open Source CFD Toolbox           |
|  \\    /   O peration     | Version:  2306                                  |
|   \\  /    A nd           | Website:  www.openfoam.com                      |
|    \\/     M anipulation  |                                                 |
\*---------------------------------------------------------------------------*/
FoamFile
{
    version     2.0;
    format      ascii;
    arch        "LSB;label=32;scalar=64";
    class       featureEdgeMesh;
    location    "constant/triSurface";
    object      cylinder.eMesh;
}
// * * * * * * * * * * * * * * * * * * * * * * * * * * * * * * * * * * * * * //


// points:

64934
(
(1.51915 -14.0384 -44.7181)
(-9.41624 -6.32418 -44.701)
(90.5446 57.7443 -44.846)
(90.2809 58.3833 -44.6323)
(90.2186 58.4334 -44.5426)
(18.1191 -66.4017 -42.2297)
(18.1246 -66.4021 -42.2297)
(18.1155 -66.4017 -42.2307)
(18.1283 -66.402 -42.2307)
(-12.1672 -4.36838 -40.0243)
(-12.1976 -4.4226 -39.9208)
(-12.1906 -4.40955 -39.9454)
(-12.2196 -4.46234 -39.8467)
(0.477042 -27.2207 -26.0901)
(1.40658 -27.3755 -26.0951)
(0.46406 -27.1704 -26.0628)
(0.488255 -27.1263 -25.9837)
(0.25266 -26.9582 -25.8825)
(24.5448 -39.7909 -25.4077)
(24.5718 -39.729 -25.4287)
(24.5735 -39.7224 -25.4278)
(24.544 -39.7908 -25.406)
(24.556 -39.7585 -25.4115)
(24.5652 -39.7387 -25.4191)
(-0.442858 -26.9004 -24.9378)
(-4.09273 -4.25869 -23.1763)
(-4.09421 -4.22078 -23.1711)
(6.94896 -4.16894 -23.1536)
(6.94344 -4.17566 -23.1289)
(-1.4952 -6.10324 -22.8651)
(-1.49023 -6.13183 -22.8424)
(-1.49141 -6.0646 -22.8372)
(-4.81895 -5.59635 -22.7269)
(6.93262 -4.18851 -23.079)
(0.697304 5.03809 -22.8444)
(0.714 5.14254 -22.8023)
(-4.59794 -7.11457 -22.5002)
(-4.6338 -7.14965 -22.4816)
(-4.55034 -7.13525 -22.4806)
(-3.32654 -6.9388 -22.4211)
(-3.02612 -6.43552 -22.5264)
(-3.46859 -4.91383 -22.5653)
(-3.44798 -4.87131 -22.5598)
(-3.46229 -4.84601 -22.5018)
(6.91192 -4.2115 -22.9852)
(-5.28393 -2.69911 -22.4277)
(-5.20146 -2.69106 -22.4455)
(-5.20813 -2.6246 -22.4335)
(-6.96864 -0.779217 -22.3198)
(-6.92997 -0.789115 -22.3586)
(-6.9529 -0.833549 -22.3507)
(-6.89591 -0.82735 -22.3511)
(-6.17722 3.04853 -22.4033)
(-6.18825 3.02077 -22.3771)
(-6.13147 3.04124 -22.3811)
(1.3302 3.42189 -22.4395)
(1.29604 3.493 -22.4734)
(1.32165 3.59388 -22.4814)
(0.647497 5.23573 -22.7258)
(90.534 58.1052 -22.5071)
(-3.06687 -7.05436 -22.2621)
(-3.73956 -7.01463 -22.2347)
(-3.44322 -4.91056 -22.5004)
(1.5506 -4.23078 -22.1266)
(0.330774 -3.85124 -22.0607)
(-1.80388 -4.0026 -21.8373)
(0.271186 -2.56973 -22.0688)
(0.304453 -2.57567 -22.0476)
(-1.09021 -0.367973 -22.0964)
(-1.09455 -0.144603 -22.0396)
(-2.7852 2.61549 -21.9314)
(-2.72927 2.5942 -21.8901)
(-4.1461 3.93393 -21.9287)
(-4.10297 3.91001 -21.9324)
(-4.09224 3.95963 -21.9308)
(-0.529865 5.53319 -22.0626)
(-0.494044 5.52898 -22.086)
(-0.518161 5.51694 -22.0626)
(3.74155 -7.36257 -21.6684)
(3.75371 -7.32437 -21.685)
(3.75996 -7.31441 -21.6473)
(-101.716 -6.17738 -21.5583)
(-101.719 -6.16514 -21.6256)
(-101.719 -6.18574 -21.5726)
(-0.636208 -5.52508 -21.6311)
(-0.583714 -5.43495 -21.6018)
(-0.594601 -5.33695 -21.4728)
(-2.68967 -4.83042 -21.9513)
(-2.70066 -4.90619 -21.9288)
(-2.65308 -4.79766 -21.9666)
(-2.81358 -3.12882 -21.772)
(-2.83128 -3.15303 -21.7623)
(-2.82798 -3.12619 -21.7112)
(-4.08952 -2.66674 -21.6215)
(-4.03286 -2.67657 -21.6452)
(0.310908 1.29989 -21.8078)
(0.359555 1.34344 -21.8061)
(0.34036 1.40676 -21.8355)
(0.31027 1.41253 -21.8509)
(-2.8263 2.08646 -21.8772)
(-2.66331 2.46064 -21.8272)
(0.796918 2.70769 -21.6492)
(-2.87531 2.87095 -21.843)
(0.752959 2.7652 -21.692)
(0.67916 2.80342 -21.673)
(-1.03972 3.85696 -21.8521)
(-1.03962 3.85696 -21.8522)
(-1.03962 3.85686 -21.8521)
(-1.03952 3.85696 -21.8521)
(-1.03962 3.85705 -21.8521)
(-2.52836 4.87897 -21.7227)
(-101.722 -6.22933 -21.4332)
(3.51027 -6.19992 -21.6437)
(3.53171 -6.22454 -21.5635)
(3.48667 -6.14743 -21.5967)
(-1.80908 -4.27938 -21.7033)
(-0.544093 -4.38718 -21.5824)
(-0.624854 -4.31212 -21.5651)
(-0.470394 -4.36898 -21.6103)
(-0.461439 -4.35115 -21.6144)
(-0.461415 -4.36294 -21.6085)
(2.04331 -4.0425 -21.265)
(-1.80496 -3.98351 -21.752)
(2.04151 -3.99931 -21.2369)
(-2.66365 -2.56167 -21.5522)
(-2.67866 -2.639 -21.5594)
(-2.65131 -2.59156 -21.5345)
(-0.578458 0.540363 -21.2375)
(0.327082 1.43662 -21.8091)
(-1.03962 3.85696 -21.8519)
(-1.12008 5.61918 -21.3509)
(-1.06282 5.71112 -21.3621)
(4.16052 -8.29485 -21.5645)
(-101.678 -6.23386 -21.1016)
(-0.497517 -4.95645 -20.9908)
(-3.67703 -3.95586 -20.9446)
(-3.6341 -3.9696 -20.939)
(-3.71201 -3.89708 -20.9254)
(2.06052 -4.03359 -21.1014)
(90.1614 58.4139 -21.1765)
(90.1632 58.411 -21.0527)
(-1.29123 -5.87719 -20.8048)
(-1.34715 -5.85635 -20.7226)
(-1.34213 -5.85326 -20.7326)
(-0.65679 -5.50236 -21.1248)
(-1.36004 -5.84359 -20.7044)
(-0.499542 -4.97607 -20.9293)
(-0.481499 -4.94721 -20.9632)
(-0.492315 -4.93991 -20.9385)
(-3.62931 -3.96356 -20.8936)
(-3.6085 -3.41373 -20.5105)
(90.1665 58.4045 -20.684)
(-1.3074 -5.88107 -20.7754)
(2.01822 -5.6445 -20.5262)
(5.60107 -5.55625 -20.0691)
(5.57576 -5.55774 -20.1095)
(5.59146 -5.55715 -20.072)
(2.00526 -5.55907 -20.5472)
(5.60727 -5.5618 -20.0642)
(-0.481888 -4.95367 -20.9283)
(2.08039 -4.11142 -20.9845)
(90.1688 58.4004 -20.3155)
(-2.50897 -9.23604 -20.3407)
(-0.835842 -7.52642 -20.2322)
(-0.863728 -7.47557 -20.2429)
(2.04499 -5.6001 -20.5272)
(5.64453 -5.55296 -19.9767)
(5.67473 -5.58069 -19.951)
(5.69966 -5.56535 -19.9269)
(-3.68728 -3.56974 -20.4241)
(90.1697 58.3982 -19.946)
(90.1695 58.3999 -20.1923)
(6.3077 -13.0747 -19.8623)
(-0.653597 -8.58748 -19.7043)
(-0.587141 -8.56918 -19.7205)
(-0.862334 -7.55838 -20.1887)
(-0.867544 -7.51358 -20.1922)
(0.434663 -7.25875 -19.6504)
(5.96269 -5.75572 -19.5179)
(-5.63351 -3.05992 -19.6628)
(-5.62905 -3.03222 -19.6844)
(-5.61926 -3.04094 -19.6615)
(-5.65158 -3.01767 -19.654)
(90.1693 58.3977 -19.6992)
(90.1694 58.3976 -19.5747)
(6.33513 -13.0812 -19.8654)
(6.41507 -6.46442 -19.2813)
(6.40568 -6.47079 -19.2548)
(6.4315 -6.46142 -19.2232)
(5.77053 -5.54962 -19.7057)
(5.90433 -5.54153 -19.5141)
(-5.65604 -3.04537 -19.6325)
(-2.13562 2.04466 -19.3349)
(-2.27778 5.51807 -19.9477)
(90.1668 58.4036 -19.0816)
(0.781367 -7.51136 -19.1498)
(0.243665 -6.36477 -19.344)
(0.253509 -6.25072 -19.2269)
(0.259263 -6.15715 -19.1423)
(0.261117 -6.00698 -19.2056)
(6.32935 -5.42857 -18.8462)
(-6.02371 -3.53639 -18.9335)
(0.77689 -8.6382 -18.734)
(0.740733 -8.59418 -18.7597)
(0.76063 -8.49479 -18.8617)
(0.749712 -7.46357 -19.1537)
(7.31956 -6.88447 -18.6651)
(7.30705 -6.8371 -18.674)
(6.46394 -6.32753 -18.9139)
(6.5169 -6.3305 -18.9266)
(0.245667 -6.10886 -19.1132)
(6.33424 -5.50853 -18.6931)
(6.37991 -5.43691 -18.7439)
(6.34402 -5.44056 -18.7262)
(0.755148 -8.65735 -18.7107)
(7.22889 -6.85745 -18.688)
(7.26377 -6.85721 -18.6583)
(6.37834 -5.47291 -18.6811)
(2.14318 2.58346 -17.9029)
(2.1662 2.56051 -17.9034)
(2.16373 2.57546 -17.9046)
(2.17764 2.55931 -17.8943)
(90.164 58.4403 -18.2534)
(0.765933 -10.7539 -18.3739)
(-1.97356 3.15582 -17.8798)
(-1.98632 3.11786 -17.8169)
(-2.00578 3.17361 -17.8036)
(1.10889 -0.166852 -17.5787)
(-4.03402 0.371816 -17.8827)
(2.5017 0.799079 -18.0738)
(90.1664 58.498 -17.3775)
(90.166 58.4981 -17.3812)
(-101.714 -6.06526 -17.147)
(-101.719 -5.88891 -17.0222)
(1.06932 -0.092826 -17.5718)
(1.1189 -0.0953491 -17.5914)
(1.96458 3.63026 -17.0613)
(0.395377 3.96477 -17.5106)
(2.08195 3.85979 -17.1153)
(-1.07138 4.24079 -17.5254)
(-1.05902 4.35924 -17.5066)
(-101.737 -6.00716 -16.9933)
(-101.718 -5.92097 -16.9154)
(-3.61136 3.02802 -17.3347)
(1.94702 3.7634 -17.0467)
(2.05683 3.82669 -17.0738)
(-101.729 -5.97919 -16.8833)
(-101.729 -5.95015 -16.8583)
(89.1471 46.0123 -16.3226)
(89.1471 46.0123 -16.3228)
(89.1471 46.0122 -16.3226)
(89.1473 46.0123 -16.3226)
(89.1471 46.0123 -16.3226)
(-15.584 5.13404 -15.8075)
(-15.5635 5.13442 -15.8048)
(89.1471 46.0123 -16.3225)
(90.1698 58.539 -15.9758)
(90.1697 58.5393 -15.9757)
(90.1695 58.5391 -15.9758)
(90.1696 58.5389 -15.9758)
(90.1697 58.5384 -15.8376)
(90.1695 58.5384 -15.8376)
(90.1695 58.5382 -15.8376)
(90.1697 58.5382 -15.8376)
(90.1695 58.5378 -15.7896)
(-96.3096 44.6065 -14.3386)
(-96.3106 44.5706 -14.2682)
(-96.3075 44.6217 -14.3165)
(-96.3279 44.5196 -14.1429)
(-57.0758 45.2358 -11.5693)
(-56.494 45.1597 -11.6864)
(50.9754 37.1381 -10.8441)
(90.169 58.5311 -10.4246)
(90.1691 58.5311 -10.4247)
(90.1691 58.531 -10.4246)
(90.1692 58.5311 -10.4246)
(90.1691 58.5312 -10.4246)
(-4.37575 -94.0327 -10.0837)
(90.1691 58.5311 -10.4244)
(-60.4856 41.6295 -9.33094)
(-60.4883 41.6253 -9.31233)
(-60.4767 41.6304 -9.32339)
(-60.483 41.634 -9.30101)
(-60.5765 41.6826 -9.21507)
(-60.9975 42.3507 -8.95709)
(53.665 33.1596 -8.24669)
(54.4765 33.5819 -8.22524)
(54.6262 33.7255 -8.30167)
(54.6156 34.0308 -8.22291)
(54.5036 34.0398 -8.10662)
(54.3276 34.2582 -8.09002)
(54.3653 34.2248 -8.10089)
(54.4199 34.1529 -8.05373)
(53.4553 34.9181 -8.01374)
(53.3759 34.7384 -7.88247)
(53.6605 34.7999 -7.7765)
(-96.3106 44.6159 -7.9089)
(52.2615 31.2527 -7.31852)
(-61.087 41.9061 -6.53782)
(-60.8383 41.8446 -6.42993)
(-60.8757 41.9568 -6.62168)
(15.0564 5.61523 -5.99888)
(15.0565 5.61559 -6.00072)
(15.0559 5.5968 -5.62987)
(-60.1455 30.3316 -5.9065)
(-49.8696 38.2796 -5.60181)
(-49.8229 38.2369 -5.62713)
(-49.6463 38.3073 -5.71632)
(15.0556 5.58388 -5.38179)
(-58.7008 27.5705 -5.5791)
(-49.7951 38.2494 -5.60458)
(-49.9045 38.3372 -5.51712)
(-49.8179 38.3079 -5.53237)
(-49.8461 38.382 -5.46679)
(-49.8996 38.3951 -5.47248)
(-49.8753 38.3304 -5.46956)
(55.9005 41.8897 -4.51976)
(56.0225 42.2276 -4.53456)
(53.6681 42.7859 -4.53961)
(56.4358 43.7088 -4.55244)
(56.5264 43.6979 -4.48996)
(56.4384 43.9268 -4.52906)
(56.572 44.7395 -4.60614)
(56.9771 44.6928 -4.52641)
(57.343 44.7455 -4.61394)
(56.3595 44.9274 -4.62824)
(56.4731 44.9302 -4.53014)
(56.9416 44.836 -4.55858)
(57.3281 42.3018 -4.12258)
(57.2843 42.702 -4.17533)
(57.3275 42.9381 -4.23358)
(55.9069 43.111 -4.46084)
(56.169 43.4089 -4.47617)
(54.9743 44.7016 -4.38333)
(-55.7011 37.1176 -3.36046)
(-55.3959 37.2871 -3.43396)
(57.0274 32.2262 -1.87714)
(-59.4712 47.0225 -1.78549)
(-51.3795 34.4716 -1.3369)
(-51.4647 34.4935 -1.33269)
(-59.5462 36.0483 -1.20887)
(-59.5461 36.0483 -1.20903)
(-59.5461 36.0482 -1.20887)
(-59.546 36.0483 -1.20887)
(-59.5461 36.0484 -1.20887)
(-55.3345 43.1595 -1.21862)
(-54.806 43.4078 -1.33877)
(-54.6939 43.5584 -1.3397)
(46.8031 44.0908 -1.02844)
(46.8672 44.0598 -0.966793)
(46.7679 44.1612 -1.04592)
(46.6766 44.1936 -1.01707)
(53.3455 30.1216 -1.02015)
(-51.4458 34.371 -1.32103)
(-51.4381 34.4307 -1.2924)
(-60.6976 34.9715 -0.889027)
(-59.5461 36.0483 -1.20873)
(-56.9476 41.4755 -1.10302)
(47.3207 41.6033 -1.40669)
(47.3801 41.6031 -1.42981)
(-54.7684 43.454 -1.31693)
(-54.5382 43.7507 -1.0859)
(46.9371 44.0904 -0.89096)
(46.9459 44.1562 -0.874642)
(46.9654 44.1301 -0.784638)
(45.5266 45.306 -0.922653)
(-57.7453 27.9052 -0.579727)
(-57.9856 28.0875 -0.423097)
(-62.8222 35.3104 -0.506461)
(-58.1734 41.3749 -0.450111)
(45.4753 45.2862 -0.875575)
(-58.5123 27.7428 -0.368488)
(52.069 32.269 -0.203398)
(-62.8218 34.7442 -0.275908)
(46.4826 43.776 -0.282175)
(46.2908 44.3463 -0.215732)
(46.3129 44.4104 -0.279018)
(-50.8815 31.6488 0.0412482)
(-50.6917 31.8983 0.103537)
(51.8618 32.2364 -0.108506)
(-52.0953 32.2506 0.124407)
(-56.5523 39.4831 0.241507)
(47.3858 40.403 0.449423)
(47.3813 40.4814 0.466639)
(46.4874 44.0416 -0.102466)
(46.4496 44.1726 -0.102303)
(46.3592 44.3754 -0.196027)
(-59.536 46.7671 0.0435543)
(-52.033 32.2046 0.213089)
(-63.5774 34.6456 0.53206)
(-56.9219 39.02 0.651061)
(-56.895 39.0392 0.652218)
(-56.7812 39.3838 0.563756)
(-49.799 39.6476 0.462799)
(-49.8064 39.7291 0.474535)
(47.4048 40.4399 0.525579)
(47.3959 40.4941 0.543731)
(47.3222 40.5452 0.563351)
(-60.4052 27.2318 1.03649)
(50.4762 31.9708 0.863432)
(-56.8733 39.1213 0.645839)
(47.7217 45.1918 0.941381)
(-61.2078 29.8967 1.44723)
(-49.0247 36.1793 1.34907)
(-61.2361 29.8918 1.50792)
(-61.3649 29.8709 1.53727)
(-63.8575 33.6955 1.7962)
(-49.4241 37.3464 1.65271)
(-59.3658 39.9363 1.72474)
(-59.6836 43.8317 1.68479)
(48.7787 45.0636 1.58682)
(48.3686 51.5323 2.17983)
(-47.9077 35.4646 2.58469)
(48.8692 42.8546 2.4775)
(48.8692 42.8545 2.47767)
(48.8695 42.8547 2.4774)
(48.8694 42.8546 2.4775)
(48.8689 42.8543 2.47726)
(48.8692 42.8541 2.47748)
(48.8688 42.8535 2.47751)
(48.8686 42.8539 2.47738)
(-96.3074 44.5931 2.19494)
(49.5686 45.1953 2.58193)
(48.5143 51.5291 2.44159)
(-44.2579 34.4638 2.82403)
(-59.3603 38.6048 2.88017)
(-59.3771 38.6498 2.91665)
(49.2126 41.4898 2.82932)
(49.1926 41.5369 2.79189)
(49.1445 41.5722 2.80632)
(48.8691 42.8544 2.47722)
(48.8689 42.854 2.47715)
(48.8689 42.8538 2.47719)
(49.6748 43.8407 2.84605)
(49.6745 43.8408 2.84586)
(49.6745 43.841 2.84601)
(49.6742 43.841 2.84605)
(49.6741 43.8408 2.84584)
(49.6741 43.8409 2.84601)
(49.6749 43.8404 2.84584)
(49.6749 43.8403 2.84601)
(49.6745 43.8405 2.84586)
(49.6741 43.8406 2.84605)
(49.6748 43.8402 2.84605)
(49.6744 43.8403 2.84601)
(-62.6786 50.7166 2.91182)
(-59.3925 38.5478 2.94288)
(49.1951 41.5318 2.84618)
(49.6746 43.8406 2.84621)
(49.6743 43.841 2.84623)
(49.6747 43.8402 2.84623)
(49.6743 43.8406 2.84621)
(-62.0954 34.1398 3.48337)
(-49.5283 34.2251 3.6304)
(-61.6861 34.5309 3.64586)
(-49.482 34.2597 3.61824)
(-49.4193 34.4151 3.48979)
(-60.0224 36.0181 3.62321)
(-61.1498 37.7587 3.65525)
(50.9717 38.5096 3.39479)
(-52.3237 39.7528 3.66707)
(48.2159 44.7021 3.55342)
(48.2202 44.738 3.57522)
(-60.4936 34.465 3.83434)
(-60.353 34.4499 3.72489)
(-60.139 36.5129 3.74407)
(52.8456 29.7546 4.23053)
(-62.0049 39.1895 4.31883)
(-58.9507 42.1894 4.19955)
(90.4283 58.0265 4.30443)
(-49.6776 33.4952 4.7398)
(-49.6658 33.6711 4.64458)
(-49.6531 33.6913 4.6231)
(-59.6078 35.4324 4.40818)
(-59.4377 35.4872 4.52615)
(-59.3656 35.5345 4.5789)
(-59.3882 35.5344 4.58503)
(90.4187 58.0374 4.61651)
(-40.1773 24.2174 4.84254)
(-40.1183 24.4781 4.89546)
(-39.2028 25.9066 5.21555)
(-64.264 33.2133 4.91458)
(-59.3695 35.5179 4.58999)
(49.3459 41.2121 5.22744)
(61.3415 43.0771 5.19762)
(-59.1067 46.0091 4.72369)
(-58.93 46.259 4.77669)
(-61.3978 51.0155 5.18588)
(-48.4833 31.6269 5.45822)
(-48.4815 31.6272 5.45684)
(41.1478 31.6341 5.53013)
(41.471 31.7045 5.43044)
(-62.8954 32.4157 5.45085)
(-48.6587 31.9259 5.4693)
(-57.234 43.0535 5.2482)
(62.2786 46.5652 5.47518)
(61.9195 47.1327 5.43239)
(-61.5503 33.4593 5.79235)
(-96.3318 44.3806 5.57977)
(-96.3241 44.4043 5.65101)
(90.4068 58.0325 5.59918)
(-48.6838 31.8117 5.51897)
(41.3441 31.7413 5.81374)
(42.0353 31.6585 5.87489)
(55.727 33.0333 6.06971)
(55.7417 33.0657 6.07982)
(55.7421 33.0604 6.09738)
(55.6246 33.1428 6.06182)
(55.7016 33.0858 6.09589)
(55.4723 33.2529 6.08173)
(55.5406 33.1996 6.09869)
(60.4969 35.6115 5.85097)
(60.2673 35.739 5.82097)
(60.4936 35.8354 5.84376)
(-96.3208 44.3966 5.62846)
(-96.3178 44.4129 5.65165)
(-65.3861 50.4828 5.99691)
(90.4072 58.0319 5.61149)
(-63.4636 32.9827 6.71994)
(-62.636 33.543 6.76035)
(-46.0047 33.6696 6.27196)
(-46.7158 35.7028 6.57851)
(45.8984 36.9576 6.50431)
(45.9295 36.945 6.51012)
(56.42 42.2583 6.47138)
(-50.4237 30.516 6.90699)
(51.0728 31.7049 7.08039)
(51.0695 31.705 7.07821)
(51.0764 31.705 7.08368)
(51.0828 31.705 7.08793)
(-63.4291 32.8242 6.71394)
(-41.5972 28.6511 7.17603)
(-41.3633 28.6646 7.25168)
(-41.5558 28.7922 7.27976)
(57.5392 30.3826 7.21669)
(51.0765 31.705 7.08259)
(51.0865 31.7049 7.09013)
(51.0899 31.705 7.09231)
(-53.9099 32.2973 7.12139)
(-53.9223 32.3086 7.17994)
(-46.8664 38.4483 7.32494)
(-46.919 38.6978 7.23814)
(-64.8966 40.6091 7.23067)
(-96.6682 43.8073 7.21628)
(-37.4323 20.4153 7.34929)
(30.401 20.6581 7.52643)
(30.3275 20.6503 7.49896)
(30.4163 20.7375 7.52383)
(40.9903 30.5357 7.76521)
(51.0829 31.705 7.08684)
(-52.4921 31.9819 7.47154)
(50.5643 35.3147 7.2919)
(-39.8796 18.2305 7.83877)
(-37.5723 20.608 7.43781)
(30.3713 20.6902 7.54265)
(-40.8197 26.5115 8.00656)
(-40.8234 26.523 8.00688)
(56.5466 33.32 7.86625)
(56.5147 33.3785 7.99319)
(47.1398 36.8662 8.01214)
(-50.9781 39.6001 8.07003)
(-50.9098 39.6036 8.02578)
(-56.6371 41.5721 8.12922)
(-56.5948 41.5501 8.02631)
(-57.4655 45.5283 7.90592)
(56.2616 33.3934 8.26894)
(56.2899 33.4107 8.29667)
(56.2463 33.4201 8.31547)
(-39.6265 18.4864 8.64413)
(38.0274 25.8297 8.60418)
(-51.4136 36.2515 8.67781)
(-51.3736 36.2215 8.70085)
(-51.3371 36.2385 8.76171)
(-51.585 36.3686 8.71191)
(-51.2604 36.2794 8.77198)
(-52.047 36.4924 8.89377)
(-96.843 43.5812 8.64094)
(-96.798 43.6368 8.54257)
(-96.8246 43.6335 8.58466)
(-61.757 46.5631 8.8396)
(37.7775 25.8317 8.87438)
(38.2179 26.8943 9.04522)
(38.2138 26.8352 9.04806)
(38.2422 26.8733 9.08176)
(38.2326 26.9041 9.12944)
(-45.8489 35.1316 9.06406)
(-52.2142 36.404 9.02692)
(60.4798 37.4355 9.06668)
(-50.8473 38.3461 8.99443)
(-50.9239 38.401 9.12519)
(-96.8124 43.6064 8.62825)
(53.1397 43.712 8.96724)
(-57.8405 27.5868 9.59787)
(-97.8178 32.9987 9.35025)
(-45.2525 35.0057 9.07957)
(-50.5306 36.8608 9.36072)
(-50.6389 36.7429 9.49501)
(-50.428 36.6775 9.6203)
(-50.2959 36.7283 9.46675)
(-48.2646 38.2812 9.34888)
(56.0476 41.9165 9.16511)
(53.4583 43.8817 9.27985)
(57.2547 45.5323 9.39178)
(57.2598 45.9559 9.42378)
(49.1839 35.1641 9.98981)
(49.183 35.165 9.98983)
(58.0466 35.3664 9.76083)
(58.1778 45.203 9.90424)
(58.5004 45.4624 9.75231)
(57.137 45.934 9.57404)
(49.1877 35.1634 9.99704)
(49.1861 35.1661 9.998)
(-57.4532 42.8924 10.3107)
(-44.0361 19.9101 10.8408)
(-43.9941 19.899 10.8059)
(-44.0276 19.8684 10.8108)
(50.1414 28.037 10.553)
(-37.0524 28.1932 10.4909)
(-37.0452 28.2235 10.5308)
(35.9217 33.1319 10.5782)
(49.1909 35.1648 10.0058)
(49.1905 35.1651 10.006)
(-46.8133 35.5699 10.529)
(-51.5736 38.9116 10.6083)
(-57.4365 42.8988 10.4027)
(-44.1431 19.7444 10.8758)
(-49.7043 27.3688 11.056)
(-36.5696 28.4158 11.0929)
(-60.0337 30.2156 11.0832)
(37.6743 32.4628 10.8898)
(54.8906 35.2472 10.7524)
(-45.435 35.4365 11.0814)
(55.1925 46.7644 11.0632)
(54.7359 47.4122 10.8496)
(-44.6923 19.4135 11.2355)
(-43.8015 19.6864 11.2181)
(-43.7676 19.7063 11.2551)
(-43.7914 19.7274 11.2974)
(-59.6319 30.2974 11.3196)
(36.9462 22.715 11.4248)
(37.1966 22.8081 11.487)
(-54.6909 25.8743 11.6559)
(45.9715 29.7149 11.5144)
(44.1337 38.8645 11.8016)
(44.1355 38.8716 11.8066)
(44.119 38.8905 11.8016)
(44.1268 38.9063 11.8161)
(90.9522 57.3782 11.5841)
(-45.4761 21.2396 12.0642)
(38.3572 24.5688 12.1563)
(-47.2331 35.5921 11.9168)
(44.1365 38.8937 11.8181)
(44.1334 38.9149 11.8258)
(55.2044 47.7059 12.0762)
(90.9206 57.4903 11.9135)
(-48.4651 17.8048 12.2681)
(-48.5068 17.801 12.3534)
(-62.1365 36.9891 12.5065)
(44.136 38.9101 11.8253)
(49.4239 40.3813 12.4304)
(49.4221 40.3847 12.4302)
(49.4179 40.3948 12.4304)
(49.4201 40.3883 12.4304)
(49.4159 40.3984 12.4302)
(49.4171 40.3947 12.4304)
(49.4141 40.4017 12.4304)
(63.2047 42.0548 12.3947)
(-56.3521 43.0324 12.3296)
(58.1116 44.6778 12.304)
(58.499 51.33 12.108)
(93.509 53.6711 11.9601)
(-68.4943 32.3729 12.7197)
(51.5747 32.6549 12.4098)
(62.6812 32.7728 12.9035)
(-58.3159 40.6705 12.7158)
(49.4156 40.3984 12.4306)
(-58.0269 40.915 12.7533)
(-57.9817 41.2525 12.7596)
(-58.1613 41.2324 12.9845)
(57.7463 44.1597 12.6642)
(92.1033 55.3688 12.5625)
(90.9303 57.6544 12.7021)
(-45.0407 18.983 13.1788)
(-66.1567 29.2745 13.2256)
(62.1076 29.5782 12.7948)
(61.6375 29.9402 12.808)
(92.1849 55.9033 12.9283)
(92.134 55.9414 12.9691)
(91.5288 56.5022 12.8664)
(91.2846 56.7143 12.8339)
(91.3297 56.6699 12.8831)
(91.3353 56.7274 12.8476)
(-2.79772 -41.4549 13.462)
(-68.503 28.7929 13.1115)
(51.2201 34.069 13.5626)
(58.5673 42.0244 13.1471)
(-59.0638 43.84 13.4675)
(-58.7759 43.9852 13.4057)
(-58.7574 44.3235 13.5361)
(-56.8899 44.2946 13.5684)
(92.1754 55.9536 12.9821)
(91.3685 56.6955 12.9067)
(90.9323 57.7059 12.9688)
(8.76237 -44.3478 13.8153)
(8.58304 -43.8907 13.5471)
(40.848 20.7311 13.9818)
(40.8898 20.6638 14.0083)
(41.0538 20.7662 13.9587)
(-53.9665 24.8539 13.5932)
(-59.0225 43.762 13.5784)
(-58.7513 44.0708 13.6097)
(11.3585 -50.8277 14.2126)
(-8.4 -36.276 14.2644)
(-66.2348 24.2055 14.3957)
(61.72 31.861 14.2211)
(-49.0926 32.9158 14.2371)
(50.8112 32.6587 14.3208)
(-64.9068 33.0521 14.0289)
(-49.0922 32.9153 14.2394)
(-49.0889 32.9166 14.2358)
(-58.3458 37.8132 14.383)
(-58.3442 37.823 14.3814)
(-58.3429 37.8393 14.3812)
(-58.3433 37.8341 14.3807)
(-58.3434 37.8504 14.3825)
(-58.3445 37.8602 14.3849)
(51.1254 38.8324 14.2407)
(51.1058 38.7959 14.2386)
(51.0974 38.9517 14.2347)
(51.1548 38.9258 14.2709)
(-56.4292 41.9087 13.9158)
(-57.2464 44.1827 14.0348)
(-8.14115 -36.3387 14.4077)
(-8.68135 -36.1429 14.3655)
(-8.37827 -36.169 14.3627)
(-53.0252 27.0364 14.5029)
(-53.0925 27.1072 14.4639)
(50.1848 32.4011 14.6286)
(-49.0175 32.9396 14.2877)
(-58.364 37.8341 14.4112)
(51.0981 38.8407 14.2449)
(51.0934 38.9689 14.2861)
(-11.0474 -36.3191 14.9455)
(-11.0189 -36.2877 14.9642)
(-53.0146 23.1704 14.7472)
(-53.1369 27.0475 14.5027)
(51.0762 31.4624 14.8355)
(-48.9651 32.9565 14.3227)
(-58.3641 37.8392 14.4111)
(45.704 37.7807 15.0828)
(45.7525 38.0983 15.0522)
(-11.088 -36.3093 14.9544)
(-11.0408 -36.2557 14.9868)
(-11.0448 -36.1785 14.9855)
(41.9551 20.0461 15.2909)
(58.703 23.4423 15.1071)
(-61.0224 28.1333 15.2855)
(-68.8521 33.3854 15.2913)
(-68.8405 33.4899 15.4044)
(-54.4614 37.8915 15.1125)
(6.6111 -43.6568 15.7064)
(6.4845 -42.9065 15.4933)
(-55.68 27.2687 15.6579)
(-55.6685 27.2859 15.6685)
(-55.7479 27.2919 15.5971)
(-68.2248 33.2465 15.4412)
(-68.7121 33.5507 15.5115)
(55.0092 43.3622 15.7635)
(44.9931 18.5387 16.1432)
(45.0056 18.5448 16.1858)
(44.9263 18.8803 15.9768)
(-51.8527 22.9701 16.3002)
(-55.6989 27.2727 15.6658)
(-55.5721 26.6707 16.2275)
(-55.694 27.3001 15.6651)
(-51.0022 28.2543 16.1067)
(-50.8637 28.5948 15.9365)
(-55.15 30.6863 16.0545)
(-61.0232 33.0422 15.8143)
(-52.1849 34.7947 16.0393)
(-54.4731 35.7074 16.0209)
(-54.3752 35.719 15.8912)
(64.0801 36.4355 15.95)
(-51.3341 37.8249 16.202)
(56.2761 42.9514 15.9177)
(60.5933 44.7462 16.1022)
(60.5967 44.7277 16.0578)
(60.6132 44.7247 16.1364)
(-60.706 14.463 16.3462)
(44.7676 18.4844 16.346)
(44.7315 18.4609 16.4047)
(44.7638 18.4863 16.4371)
(58.0322 30.4466 16.2223)
(-55.4458 30.7281 16.1143)
(-53.6452 31.0473 16.5373)
(51.0283 31.2206 16.1931)
(-53.9327 31.2838 16.6197)
(-53.9767 32.5255 16.0831)
(64.07 34.2375 16.4661)
(63.8786 34.5402 16.4241)
(41.3531 34.8083 16.3739)
(-53.1827 39.4681 16.5232)
(-46.4352 17.3416 17.0402)
(52.6485 27.5971 16.5679)
(-52.1977 27.9904 17.0258)
(-52.1433 27.9638 17.0442)
(-51.7567 27.9732 17.0104)
(-52.1622 28.0759 16.9891)
(-51.9868 28.0676 16.9703)
(-51.7668 28.0052 17.0131)
(-52.0945 28.1133 16.963)
(-52.1141 28.1259 16.9811)
(-52.039 28.1297 16.9641)
(-51.9513 28.0923 16.9999)
(-52.0857 28.1473 16.9608)
(-53.8687 31.1583 16.9285)
(-53.8116 31.2587 16.9209)
(-47.247 36.7235 16.5655)
(-47.0787 36.8471 16.5421)
(59.942 42.52 16.7274)
(-64.3845 43.5364 16.8187)
(-45.5117 18.0139 17.021)
(-53.1988 25.734 17.1091)
(-52.1936 27.9853 17.05)
(-52.139 27.9724 17.0685)
(-51.7731 27.9773 17.0382)
(-52.1997 28.0261 17.0253)
(-51.7906 28.0132 17.0401)
(-53.9021 31.1615 17.373)
(-47.0915 36.8133 16.5856)
(52.5611 37.8049 17.0139)
(-61.1581 13.0401 17.4568)
(63.7865 28.0924 17.5591)
(56.2025 50.0095 17.5593)
(57.7412 52.0706 17.4605)
(7.83876 -56.3949 18.0882)
(-59.346 18.7415 17.9597)
(-59.3175 18.732 17.9596)
(41.9459 19.9893 18.048)
(41.9826 19.962 18.0488)
(60.0655 23.6975 17.6285)
(60.46 23.8025 17.7003)
(-54.0135 29.9584 17.9821)
(-54.016 29.9527 17.9857)
(-54.0076 29.9675 17.986)
(-53.9534 30.1283 17.942)
(-53.9284 30.1437 17.9705)
(-38.7996 30.2049 18.0498)
(-53.8357 30.49 17.7688)
(-55.8155 31.2323 17.8381)
(-54.121 31.5176 17.8709)
(-54.3016 31.8193 17.932)
(45.2034 36.6433 18.0261)
(-54.9273 37.2874 17.8752)
(-47.9096 37.1037 17.9626)
(-47.8742 37.1158 17.9128)
(-47.8125 37.0852 17.9476)
(-47.8541 37.1089 17.9669)
(-55.8279 41.9973 17.8363)
(6.66889 -43.0254 18.4359)
(41.9492 19.9147 18.1936)
(58.5599 21.7998 18.2481)
(-53.8303 30.3938 17.9818)
(-55.8473 31.2827 17.8928)
(-55.7879 31.2722 17.869)
(-55.8753 31.3692 17.9072)
(-54.0933 31.5823 18.026)
(60.2468 34.678 18.2322)
(53.4475 43.9853 18.3109)
(7.08479 -42.8755 18.7311)
(42.788 14.6959 18.7058)
(-55.2244 19.5351 18.477)
(-53.3634 31.0486 18.636)
(-63.5391 31.4442 18.6805)
(-43.4821 33.5944 18.6968)
(-43.4675 33.5888 18.6964)
(-43.4829 33.5935 18.6969)
(-51.6051 34.0615 18.4009)
(-43.4959 33.5978 18.6972)
(43.9361 18.3994 18.8927)
(59.2284 28.0651 18.7796)
(57.978 28.4106 18.8451)
(59.3686 28.3835 19.0565)
(-50.8341 29.7569 19.0209)
(55.1944 29.9165 19.1476)
(55.2229 29.9165 19.1614)
(-55.1235 30.4218 18.9523)
(49.0846 30.644 19.1956)
(49.2526 30.6554 19.1901)
(56.161 45.1083 18.9733)
(57.0241 47.8564 19.1573)
(49.0301 30.6966 19.2257)
(49.2684 30.655 19.1985)
(52.4011 31.57 19.4173)
(-56.4653 37.8415 19.0823)
(-60.0049 51.0301 19.4386)
(-59.9857 51.0784 19.4788)
(-60.0279 51.0954 19.4973)
(-60.4856 52.1154 19.5069)
(41.5025 18.3819 19.8896)
(56.1513 28.4423 19.8999)
(56.2261 28.5019 19.8302)
(37.2118 32.8165 19.8763)
(37.2449 32.7595 19.8231)
(37.2062 32.8425 19.8663)
(37.2043 32.8627 19.9006)
(37.2221 32.8852 19.8922)
(-49.0304 34.3285 19.7592)
(65.7694 35.2505 19.8202)
(-63.8397 41.7616 19.9045)
(-61.37 46.8774 19.7986)
(-61.2687 46.7749 19.8721)
(-60.0089 49.052 19.6624)
(-60.1184 52.392 19.7312)
(-59.9215 52.5073 19.8377)
(48.0194 30.3764 20.0197)
(48.0906 30.4366 20.0435)
(48.0286 30.4279 20.0468)
(48.2132 30.578 19.913)
(-40.6832 31.3248 19.8923)
(37.2731 32.9139 19.9544)
(65.8158 35.1111 20.1463)
(-54.3813 35.7809 19.901)
(-61.2357 46.5476 20.0216)
(-61.8357 50.2092 20.19)
(-51.59 20.6125 20.5415)
(-51.5194 20.6831 20.5389)
(56.4462 21.1579 20.3264)
(-52.8034 26.1527 20.3929)
(48.0664 30.3976 20.0666)
(37.2829 32.9317 19.9569)
(-44.5565 34.5187 20.3993)
(-44.4977 34.4852 20.5383)
(-58.7197 35.9737 20.7092)
(-58.7194 35.974 20.7097)
(-58.7154 35.9791 20.719)
(-60.9929 36.8474 20.4642)
(-62.2287 38.4388 20.508)
(-57.022 39.098 20.5881)
(-55.0148 40.6601 20.5065)
(-54.9571 40.622 20.54)
(-54.9099 40.6294 20.548)
(-54.2908 42.0933 20.4341)
(-54.3126 42.1371 20.4744)
(-58.8116 48.7561 20.3981)
(42.9232 18.1084 21.1005)
(42.9408 18.0906 21.1124)
(42.9409 18.1468 21.1291)
(50.1142 21.0245 20.4956)
(-63.5761 23.2662 20.6857)
(49.795 25.5842 20.8463)
(50.0114 25.4878 20.7357)
(52.9922 28.5603 21.1515)
(53.1826 28.6311 21.067)
(53.0627 28.5873 21.1187)
(51.6836 30.3794 20.9132)
(-58.7158 35.9784 20.7185)
(-58.7128 35.982 20.7254)
(-58.7097 35.9858 20.732)
(-55.6944 37.9471 20.5704)
(56.4913 45.8916 20.6431)
(56.4935 46.0569 20.7977)
(51.4348 20.5922 21.2398)
(51.2267 21.0004 21.2967)
(-48.616 25.3352 21.2329)
(52.8678 28.5073 21.2162)
(52.9036 28.5243 21.1951)
(53.0254 28.569 21.142)
(-57.7853 42.9027 21.1965)
(-54.744 42.9289 21.4487)
(57.423 44.0509 21.1106)
(-60.6324 48.5191 21.3949)
(-60.9133 48.9972 21.1698)
(-63.2527 52.053 21.1833)
(51.6537 20.6251 21.6333)
(53.1038 28.5986 21.1059)
(62.1554 30.3989 21.5972)
(62.1286 30.6783 21.5667)
(48.0137 32.189 21.728)
(-56.5504 37.7393 21.5589)
(-56.5447 37.6948 21.6317)
(-56.6267 37.8153 21.5273)
(49.0187 40.6773 21.5039)
(-58.903 41.3902 21.618)
(-57.8377 43.0128 21.2576)
(-60.1834 49.8602 21.4951)
(-56.4346 37.7699 21.8155)
(49.575 38.9424 21.7652)
(-58.84 43.0056 22.2673)
(-58.8418 42.9994 22.2676)
(-58.8473 42.9929 22.2728)
(-60.3228 49.9717 21.7462)
(-6.31009 -55.6065 22.4396)
(7.34807 -51.4018 22.4543)
(7.72787 -51.2628 22.4042)
(7.72305 -51.2186 22.3946)
(46.1442 29.1369 22.1483)
(46.3921 29.1331 22.2144)
(50.1269 29.1239 22.4142)
(50.106 29.1642 22.3915)
(63.2441 34.5552 22.2974)
(-53.8856 35.5704 22.1321)
(-54.9546 35.8058 22.3987)
(-55.5452 37.416 22.4116)
(-55.458 37.3839 22.4244)
(-55.6983 37.5513 22.3448)
(52.3174 38.764 22.1333)
(-56.132 39.808 22.3493)
(48.0627 42.1513 22.3724)
(-59.0339 42.6972 22.335)
(-58.9983 42.6988 22.2952)
(-58.8964 42.9069 22.281)
(-58.8872 42.9314 22.2904)
(-58.6085 44.324 22.4132)
(58.4718 48.7585 22.5504)
(-60.0875 51.8844 22.4697)
(-59.9269 51.9217 22.3485)
(8.10702 -40.0995 22.5712)
(56.5352 24.2966 22.8856)
(56.682 24.2949 22.77)
(56.6822 24.2949 22.7744)
(-64.6173 31.3323 22.6582)
(51.605 32.0412 22.8336)
(51.4674 32.1555 22.6095)
(51.568 32.3721 22.8648)
(-55.605 37.4673 22.3958)
(-55.3454 37.3696 22.4592)
(-55.635 38.4992 22.8973)
(44.1128 39.3923 22.5019)
(-59.7705 41.8591 22.6732)
(48.0256 42.3947 22.6469)
(48.0412 42.4452 22.662)
(-61.832 46.0954 22.589)
(-57.7264 46.0819 22.4416)
(-61.9912 46.1835 22.506)
(58.3972 48.8144 22.6905)
(8.64101 -39.3052 23.254)
(51.0764 22.7897 22.9578)
(51.1209 22.806 23.0011)
(56.4769 24.297 22.9385)
(-64.5784 31.9777 23.0138)
(-64.4061 31.8268 23.1344)
(48.0169 42.4212 22.6786)
(55.7757 46.5638 23.0823)
(55.8359 46.5645 23.0727)
(-62.6159 46.3743 23.1104)
(9.17345 -38.9952 23.4778)
(9.08328 -38.8156 23.3788)
(45.8923 29.1918 23.5449)
(45.8964 29.2493 23.5142)
(55.4003 31.0656 23.2539)
(50.6192 31.2167 23.1661)
(14.8421 -40.4267 23.7908)
(52.1314 20.9 23.586)
(52.1651 21.2959 23.7803)
(54.478 24.296 24.0368)
(8.99399 -52.6272 24.1443)
(14.9639 -40.3475 23.8949)
(53.7741 23.1747 24.2178)
(54.4364 24.2958 24.0724)
(54.4065 24.2958 24.0946)
(54.5011 24.2958 24.0229)
(58.3455 51.0649 24.3004)
(58.5077 51.2503 24.1955)
(8.62435 -52.3422 24.4437)
(13.9781 -39.7125 24.3925)
(54.4755 24.2956 24.0425)
(54.547 24.2958 23.9875)
(-66.2271 29.7046 24.8227)
(52.2321 37.472 24.6115)
(56.9543 45.9666 24.6499)
(56.9719 45.9427 24.6688)
(56.9816 46.0067 24.6622)
(13.1161 -38.9878 24.8828)
(43.7064 21.7421 25.2049)
(43.7104 21.7425 25.2109)
(-68.1763 25.7435 24.9901)
(-68.186 28.6479 24.9119)
(50.5476 31.9576 24.9189)
(57.7613 46.6618 24.8915)
(57.5967 46.7456 24.7449)
(57.5393 49.9436 24.9281)
(-60.8026 50.0612 24.8628)
(57.5202 49.9754 24.9453)
(-1.00271 -40.0415 25.2588)
(43.6351 21.7398 25.2697)